Circuit: * Z:\media\profesores\Datos\Matias Pereyra\Zigbee-Sirens\Proyecto Sirenas\Draft2.asc

.OP point found by inspection.

Date: Mon Mar 11 12:24:08 2019
Total elapsed time: 0.062 seconds.

tnom = 27
temp = 27
method = modified trap
totiter = 2289
traniter = 2289
tranpoints = 1083
accept = 1061
rejected = 22
matrix size = 4
fillins = 0
solver = Normal
Matrix Compiler1: 118 bytes object code size  0.3/0.3/[0.3]
Matrix Compiler2: 242 bytes object code size  0.3/0.3/[0.3]

